83

C 5.548900 -1.067200 2.141100
C 4.979600 -1.814700 0.941000
C 5.789700 -1.353500 -0.259100
C 3.582000 -1.327900 0.715300
C 2.791400 -1.805500 -0.294500
C 1.785200 -0.989500 -0.796000
C 1.176300 -1.435100 -2.088000
C 2.221800 -1.837100 -3.095400
C 0.365000 -2.682500 -1.753400
C 1.228800 0.041200 -0.040700
C 0.660600 1.113200 -0.874200
C 1.410000 1.745000 -1.860300
C 1.009000 2.980300 -2.351400
C -0.063300 3.578000 -1.729400
C -0.857100 2.890700 -0.852200
C -0.605800 1.562000 -0.523600
P -1.875100 0.462400 -0.035500
C -1.621600 -0.853500 1.128200
C -1.619700 -2.257500 0.532300
C -1.595600 -3.254500 1.685000
C -3.026500 -3.370700 2.165700
C -3.663800 -2.022800 2.017900
C -2.713600 -0.873300 2.191600
C -3.463400 0.502200 -0.944700
C -3.341300 1.147500 -2.271600
C -3.993100 2.457200 -2.482900
C -4.679700 3.057000 -1.295600
C -5.492200 1.977900 -0.645800
C -4.524200 1.012700 -0.032300
C 2.084200 0.497900 0.959900
C 1.859600 1.776800 1.687500
C 2.232500 1.631600 3.159100
C 2.818500 2.785700 1.099700
C 3.029200 -0.350700 1.523800
H 5.375300 0.024400 1.961000
H 6.663800 -1.168100 2.165300
H 5.100800 -1.385600 3.091600
H 5.028300 -2.901500 1.098300
H 5.272000 -0.541000 -0.808400
H 5.949700 -2.173400 -0.979600
H 6.771100 -0.941600 0.058400
H 3.174900 -2.650700 -0.864000
H 0.474400 -0.696900 -2.499000
H 2.564800 -2.866500 -2.847600
H 1.698800 -1.921600 -4.079300
H 3.049900 -1.113000 -3.185100
H 0.053100 -2.674800 -0.683500
H 0.983200 -3.592900 -1.891500
H -0.530500 -2.757000 -2.415200
H 2.395700 1.397500 -2.099100
H 1.508400 3.503100 -3.139600
H -0.284800 4.609600 -1.962700
H -1.743300 3.391700 -0.459000
H -0.678400 -0.737400 1.670600
H -0.718500 -2.447600 -0.080700
H -2.503400 -2.434600 -0.101300
H -0.930900 -2.899500 2.494300
H -1.234500 -4.231400 1.275100
H -3.115900 -3.766600 3.186400
H -3.520900 -4.105200 1.480600
H -4.487600 -1.862400 2.748900
H -4.153400 -1.989200 1.011000
H -3.319600 0.056800 2.149300
H -2.302600 -0.931200 3.215400
H -3.724000 -0.574800 -1.128000
H -3.672700 0.471100 -3.103100
H -2.245000 1.276600 -2.471700
H -4.766500 2.416800 -3.294200
H -3.272000 3.233700 -2.849000
H -5.269900 3.923200 -1.631000
H -3.911900 3.373800 -0.547500
H -6.040300 2.460200 0.203700
H -6.241600 1.512200 -1.299100
H -5.156800 0.205000 0.418300
H -4.071700 1.532200 0.851000
H 0.811400 2.104400 1.676500
H 3.328300 1.700100 3.319200
H 1.775300 0.736700 3.617600
H 1.764500 2.507200 3.676800
H 3.540600 2.319300 0.383100
H 2.294400 3.603600 0.552000
H 3.450700 3.277800 1.871300
H 3.430900 -0.195700 2.521700
