72

C -1.579000 -1.849200 -2.553300
N -2.508000 -0.768200 -2.237100
C -3.237500 -0.203000 -3.346900
C -2.963900 -0.689800 -0.880500
C -4.081100 -1.437900 -0.579100
C -4.623600 -1.357200 0.677800
C -3.865900 -0.756700 1.672600
C -2.731800 -0.016700 1.363900
N -1.822500 0.344200 2.410700
C -1.845200 1.730500 2.871900
C -1.674400 -0.644100 3.477900
C -2.167800 -0.101200 0.096300
C -1.449000 1.102400 -0.348400
C -2.114800 2.163200 -0.953500
C -1.459700 3.056800 -1.791800
C -0.213100 2.682600 -2.278800
C 0.400600 1.505400 -1.867500
C -0.133500 0.881800 -0.745400
P 0.915200 0.021100 0.487000
C 2.175700 1.150900 1.221100
C 1.556100 2.496200 1.486700
C 2.673600 3.405300 1.955100
C 3.532700 3.715600 0.766500
C 3.732300 2.562900 -0.166700
C 3.448900 1.220300 0.435500
C 1.616400 -1.553800 -0.135600
C 1.441500 -2.586600 0.972400
C 2.029700 -3.918300 0.613200
C 2.493200 -3.960100 -0.816700
C 1.484900 -3.399100 -1.777200
C 0.964100 -2.046400 -1.393700
H -1.037600 -1.616500 -3.500000
H -2.193300 -2.748500 -2.766900
H -0.847900 -2.015800 -1.746000
H -3.868100 -0.955600 -3.878900
H -3.887900 0.638700 -3.068600
H -2.484200 0.171500 -4.085500
H -4.559500 -2.077400 -1.322900
H -5.525600 -1.902900 0.877300
H -4.133400 -1.018500 2.695100
H -2.382100 2.397300 2.182700
H -2.368100 1.789800 3.859900
H -0.798900 2.062300 3.080900
H -2.602400 -0.706700 4.090200
H -1.339400 -1.616800 3.089800
H -0.882400 -0.267500 4.171800
H -3.195100 2.191600 -0.906600
H -1.809900 4.075800 -1.814700
H 0.317500 3.427300 -2.874800
H 1.469800 1.453100 -2.053700
H 2.434800 0.727700 2.225000
H 0.849100 2.381100 2.343800
H 1.053500 2.928800 0.610900
H 3.304700 2.912400 2.707400
H 2.209700 4.329000 2.362400
H 4.491000 4.172600 1.101100
H 3.011000 4.520300 0.190200
H 3.196500 2.711500 -1.138500
H 4.816300 2.562700 -0.449700
H 4.339900 0.891800 1.003200
H 3.349700 0.500500 -0.416200
H 2.694800 -1.445800 -0.324000
H 2.016400 -2.178600 1.839900
H 0.387700 -2.666800 1.288500
H 2.908900 -4.170500 1.257600
H 1.289000 -4.730400 0.807300
H 2.611500 -5.043100 -1.075200
H 3.494700 -3.509600 -0.928100
H 1.994900 -3.332000 -2.772100
H 0.671600 -4.146400 -1.917900
H 1.131200 -1.298900 -2.199100
H -0.123200 -2.148000 -1.182200
